Loads.txt
New Load.LOAD1 Phases=1 Bus1=34.1 kV=0.23 PF=0.95 Yearly=Shape_Load_1 Vminpu=0.9 Vmaxpu=1.1 kW=7.59 
New Load.LOAD2 Phases=1 Bus1=47.2 kV=0.23 PF=0.95 Yearly=Shape_Load_2 Vminpu=0.9 Vmaxpu=1.1 kW=9.82 
New Load.LOAD3 Phases=1 Bus1=70.1 kV=0.23 PF=0.95 Yearly=Shape_Load_3 Vminpu=0.9 Vmaxpu=1.1 kW=5.46 
New Load.LOAD4 Phases=1 Bus1=73.1 kV=0.23 PF=0.95 Yearly=Shape_Load_4 Vminpu=0.9 Vmaxpu=1.1 kW=8.9 
New Load.LOAD5 Phases=1 Bus1=74.1 kV=0.23 PF=0.95 Yearly=Shape_Load_5 Vminpu=0.9 Vmaxpu=1.1 kW=9.51 
New Load.LOAD6 Phases=1 Bus1=83.2 kV=0.23 PF=0.95 Yearly=Shape_Load_6 Vminpu=0.9 Vmaxpu=1.1 kW=9.38 
New Load.LOAD7 Phases=1 Bus1=178.2 kV=0.23 PF=0.95 Yearly=Shape_Load_7 Vminpu=0.9 Vmaxpu=1.1 kW=8.13 
New Load.LOAD8 Phases=1 Bus1=208.3 kV=0.23 PF=0.95 Yearly=Shape_Load_8 Vminpu=0.9 Vmaxpu=1.1 kW=6.74 
New Load.LOAD9 Phases=1 Bus1=225.1 kV=0.23 PF=0.95 Yearly=Shape_Load_9 Vminpu=0.9 Vmaxpu=1.1 kW=8.19 
New Load.LOAD10 Phases=1 Bus1=248.2 kV=0.23 PF=0.95 Yearly=Shape_Load_10 Vminpu=0.9 Vmaxpu=1.1 kW=7.75 
New Load.LOAD11 Phases=1 Bus1=249.2 kV=0.23 PF=0.95 Yearly=Shape_Load_11 Vminpu=0.9 Vmaxpu=1.1 kW=5 
New Load.LOAD12 Phases=1 Bus1=264.3 kV=0.23 PF=0.95 Yearly=Shape_Load_12 Vminpu=0.9 Vmaxpu=1.1 kW=8.13 
New Load.LOAD13 Phases=1 Bus1=276.2 kV=0.23 PF=0.95 Yearly=Shape_Load_13 Vminpu=0.9 Vmaxpu=1.1 kW=10.5 
New Load.LOAD14 Phases=1 Bus1=289.1 kV=0.23 PF=0.95 Yearly=Shape_Load_14 Vminpu=0.9 Vmaxpu=1.1 kW=11.1 
New Load.LOAD15 Phases=1 Bus1=314.2 kV=0.23 PF=0.95 Yearly=Shape_Load_15 Vminpu=0.9 Vmaxpu=1.1 kW=4.83 
New Load.LOAD16 Phases=1 Bus1=320.3 kV=0.23 PF=0.95 Yearly=Shape_Load_16 Vminpu=0.9 Vmaxpu=1.1 kW=3.64 
New Load.LOAD17 Phases=1 Bus1=327.3 kV=0.23 PF=0.95 Yearly=Shape_Load_17 Vminpu=0.9 Vmaxpu=1.1 kW=5.48 
New Load.LOAD18 Phases=1 Bus1=337.3 kV=0.23 PF=0.95 Yearly=Shape_Load_18 Vminpu=0.9 Vmaxpu=1.1 kW=11.7 
New Load.LOAD19 Phases=1 Bus1=342.3 kV=0.23 PF=0.95 Yearly=Shape_Load_19 Vminpu=0.9 Vmaxpu=1.1 kW=8.13 
New Load.LOAD20 Phases=1 Bus1=349.1 kV=0.23 PF=0.95 Yearly=Shape_Load_20 Vminpu=0.9 Vmaxpu=1.1 kW=7.15 
New Load.LOAD21 Phases=1 Bus1=387.1 kV=0.23 PF=0.95 Yearly=Shape_Load_21 Vminpu=0.9 Vmaxpu=1.1 kW=8.09 
New Load.LOAD22 Phases=1 Bus1=388.1 kV=0.23 PF=0.95 Yearly=Shape_Load_22 Vminpu=0.9 Vmaxpu=1.1 kW=5.95 
New Load.LOAD23 Phases=1 Bus1=406.2 kV=0.23 PF=0.95 Yearly=Shape_Load_23 Vminpu=0.9 Vmaxpu=1.1 kW=8.02 
New Load.LOAD24 Phases=1 Bus1=458.3 kV=0.23 PF=0.95 Yearly=Shape_Load_24 Vminpu=0.9 Vmaxpu=1.1 kW=7.31 
New Load.LOAD25 Phases=1 Bus1=502.1 kV=0.23 PF=0.95 Yearly=Shape_Load_25 Vminpu=0.9 Vmaxpu=1.1 kW=6.34 
New Load.LOAD26 Phases=1 Bus1=522.2 kV=0.23 PF=0.95 Yearly=Shape_Load_26 Vminpu=0.9 Vmaxpu=1.1 kW=8.23 
New Load.LOAD27 Phases=1 Bus1=539.3 kV=0.23 PF=0.95 Yearly=Shape_Load_27 Vminpu=0.9 Vmaxpu=1.1 kW=4.81 
New Load.LOAD28 Phases=1 Bus1=556.3 kV=0.23 PF=0.95 Yearly=Shape_Load_28 Vminpu=0.9 Vmaxpu=1.1 kW=11.2 
New Load.LOAD29 Phases=1 Bus1=562.1 kV=0.23 PF=0.95 Yearly=Shape_Load_29 Vminpu=0.9 Vmaxpu=1.1 kW=3.71 
New Load.LOAD30 Phases=1 Bus1=563.1 kV=0.23 PF=0.95 Yearly=Shape_Load_30 Vminpu=0.9 Vmaxpu=1.1 kW=9.21 
New Load.LOAD31 Phases=1 Bus1=611.1 kV=0.23 PF=0.95 Yearly=Shape_Load_31 Vminpu=0.9 Vmaxpu=1.1 kW=9.48 
New Load.LOAD32 Phases=1 Bus1=614.3 kV=0.23 PF=0.95 Yearly=Shape_Load_32 Vminpu=0.9 Vmaxpu=1.1 kW=4.62 
New Load.LOAD33 Phases=1 Bus1=619.3 kV=0.23 PF=0.95 Yearly=Shape_Load_33 Vminpu=0.9 Vmaxpu=1.1 kW=7.02 
New Load.LOAD34 Phases=1 Bus1=629.1 kV=0.23 PF=0.95 Yearly=Shape_Load_34 Vminpu=0.9 Vmaxpu=1.1 kW=4.96 
New Load.LOAD35 Phases=1 Bus1=639.2 kV=0.23 PF=0.95 Yearly=Shape_Load_35 Vminpu=0.9 Vmaxpu=1.1 kW=10.8 
New Load.LOAD36 Phases=1 Bus1=676.2 kV=0.23 PF=0.95 Yearly=Shape_Load_36 Vminpu=0.9 Vmaxpu=1.1 kW=7.27 
New Load.LOAD37 Phases=1 Bus1=682.2 kV=0.23 PF=0.95 Yearly=Shape_Load_37 Vminpu=0.9 Vmaxpu=1.1 kW=6.41 
New Load.LOAD38 Phases=1 Bus1=688.2 kV=0.23 PF=0.95 Yearly=Shape_Load_38 Vminpu=0.9 Vmaxpu=1.1 kW=10.4 
New Load.LOAD39 Phases=1 Bus1=701.3 kV=0.23 PF=0.95 Yearly=Shape_Load_39 Vminpu=0.9 Vmaxpu=1.1 kW=4.84 
New Load.LOAD40 Phases=1 Bus1=702.2 kV=0.23 PF=0.95 Yearly=Shape_Load_40 Vminpu=0.9 Vmaxpu=1.1 kW=7.37 
New Load.LOAD41 Phases=1 Bus1=755.2 kV=0.23 PF=0.95 Yearly=Shape_Load_41 Vminpu=0.9 Vmaxpu=1.1 kW=7.79 
New Load.LOAD42 Phases=1 Bus1=778.3 kV=0.23 PF=0.95 Yearly=Shape_Load_42 Vminpu=0.9 Vmaxpu=1.1 kW=13.3 
New Load.LOAD43 Phases=1 Bus1=780.3 kV=0.23 PF=0.95 Yearly=Shape_Load_43 Vminpu=0.9 Vmaxpu=1.1 kW=8.95 
New Load.LOAD44 Phases=1 Bus1=785.2 kV=0.23 PF=0.95 Yearly=Shape_Load_44 Vminpu=0.9 Vmaxpu=1.1 kW=5.89 
New Load.LOAD45 Phases=1 Bus1=813.2 kV=0.23 PF=0.95 Yearly=Shape_Load_45 Vminpu=0.9 Vmaxpu=1.1 kW=12.7 
New Load.LOAD46 Phases=1 Bus1=817.1 kV=0.23 PF=0.95 Yearly=Shape_Load_46 Vminpu=0.9 Vmaxpu=1.1 kW=8.2 
New Load.LOAD47 Phases=1 Bus1=835.3 kV=0.23 PF=0.95 Yearly=Shape_Load_47 Vminpu=0.9 Vmaxpu=1.1 kW=8.83 
New Load.LOAD48 Phases=1 Bus1=860.1 kV=0.23 PF=0.95 Yearly=Shape_Load_48 Vminpu=0.9 Vmaxpu=1.1 kW=5.59 
New Load.LOAD49 Phases=1 Bus1=861.1 kV=0.23 PF=0.95 Yearly=Shape_Load_49 Vminpu=0.9 Vmaxpu=1.1 kW=8.46 
New Load.LOAD50 Phases=1 Bus1=886.2 kV=0.23 PF=0.95 Yearly=Shape_Load_50 Vminpu=0.9 Vmaxpu=1.1 kW=6.7 
New Load.LOAD51 Phases=1 Bus1=896.1 kV=0.23 PF=0.95 Yearly=Shape_Load_51 Vminpu=0.9 Vmaxpu=1.1 kW=10.5 
New Load.LOAD52 Phases=1 Bus1=898.1 kV=0.23 PF=0.95 Yearly=Shape_Load_52 Vminpu=0.9 Vmaxpu=1.1 kW=9.08 
New Load.LOAD53 Phases=1 Bus1=899.2 kV=0.23 PF=0.95 Yearly=Shape_Load_53 Vminpu=0.9 Vmaxpu=1.1 kW=7.95 
New Load.LOAD54 Phases=1 Bus1=900.1 kV=0.23 PF=0.95 Yearly=Shape_Load_54 Vminpu=0.9 Vmaxpu=1.1 kW=5.98 
New Load.LOAD55 Phases=1 Bus1=906.1 kV=0.23 PF=0.95 Yearly=Shape_Load_50 Vminpu=0.9 Vmaxpu=1.1 kW=6.7 
