LoadsEVs.txt
New Load.LOAD_ev_1 Phases=1 Bus1=34.1 kV=0.23 kW=1 PF=1.0 Yearly=Shape_EVLoad_1 Vmaxpu=1.1 Vminpu=0.9
New Load.LOAD_ev_2 Phases=1 Bus1=47.2 kV=0.23 kW=1 PF=1.0 Yearly=Shape_EVLoad_2 Vmaxpu=1.1 Vminpu=0.9
New Load.LOAD_ev_3 Phases=1 Bus1=70.1 kV=0.23 kW=1 PF=1.0 Yearly=Shape_EVLoad_3 Vmaxpu=1.1 Vminpu=0.9
New Load.LOAD_ev_4 Phases=1 Bus1=73.1 kV=0.23 kW=1 PF=1.0 Yearly=Shape_EVLoad_4 Vmaxpu=1.1 Vminpu=0.9
New Load.LOAD_ev_5 Phases=1 Bus1=74.1 kV=0.23 kW=1 PF=1.0 Yearly=Shape_EVLoad_5 Vmaxpu=1.1 Vminpu=0.9
New Load.LOAD_ev_6 Phases=1 Bus1=83.2 kV=0.23 kW=1 PF=1.0 Yearly=Shape_EVLoad_6 Vmaxpu=1.1 Vminpu=0.9
New Load.LOAD_ev_7 Phases=1 Bus1=178.2 kV=0.23 kW=1 PF=1.0 Yearly=Shape_EVLoad_7 Vmaxpu=1.1 Vminpu=0.9
New Load.LOAD_ev_8 Phases=1 Bus1=208.3 kV=0.23 kW=1 PF=1.0 Yearly=Shape_EVLoad_8 Vmaxpu=1.1 Vminpu=0.9
New Load.LOAD_ev_9 Phases=1 Bus1=225.1 kV=0.23 kW=1 PF=1.0 Yearly=Shape_EVLoad_9 Vmaxpu=1.1 Vminpu=0.9
New Load.LOAD_ev_10 Phases=1 Bus1=248.2 kV=0.23 kW=1 PF=1.0 Yearly=Shape_EVLoad_10 Vmaxpu=1.1 Vminpu=0.9
New Load.LOAD_ev_11 Phases=1 Bus1=249.2 kV=0.23 kW=1 PF=1.0 Yearly=Shape_EVLoad_11 Vmaxpu=1.1 Vminpu=0.9
New Load.LOAD_ev_12 Phases=1 Bus1=264.3 kV=0.23 kW=1 PF=1.0 Yearly=Shape_EVLoad_12 Vmaxpu=1.1 Vminpu=0.9
New Load.LOAD_ev_13 Phases=1 Bus1=276.2 kV=0.23 kW=1 PF=1.0 Yearly=Shape_EVLoad_13 Vmaxpu=1.1 Vminpu=0.9
New Load.LOAD_ev_14 Phases=1 Bus1=289.1 kV=0.23 kW=1 PF=1.0 Yearly=Shape_EVLoad_14 Vmaxpu=1.1 Vminpu=0.9
New Load.LOAD_ev_15 Phases=1 Bus1=314.2 kV=0.23 kW=1 PF=1.0 Yearly=Shape_EVLoad_15 Vmaxpu=1.1 Vminpu=0.9
New Load.LOAD_ev_16 Phases=1 Bus1=320.3 kV=0.23 kW=1 PF=1.0 Yearly=Shape_EVLoad_16 Vmaxpu=1.1 Vminpu=0.9
New Load.LOAD_ev_17 Phases=1 Bus1=327.3 kV=0.23 kW=1 PF=1.0 Yearly=Shape_EVLoad_17 Vmaxpu=1.1 Vminpu=0.9
New Load.LOAD_ev_18 Phases=1 Bus1=337.3 kV=0.23 kW=1 PF=1.0 Yearly=Shape_EVLoad_18 Vmaxpu=1.1 Vminpu=0.9
New Load.LOAD_ev_19 Phases=1 Bus1=342.3 kV=0.23 kW=1 PF=1.0 Yearly=Shape_EVLoad_19 Vmaxpu=1.1 Vminpu=0.9
New Load.LOAD_ev_20 Phases=1 Bus1=349.1 kV=0.23 kW=1 PF=1.0 Yearly=Shape_EVLoad_20 Vmaxpu=1.1 Vminpu=0.9
New Load.LOAD_ev_21 Phases=1 Bus1=387.1 kV=0.23 kW=1 PF=1.0 Yearly=Shape_EVLoad_21 Vmaxpu=1.1 Vminpu=0.9
New Load.LOAD_ev_22 Phases=1 Bus1=388.1 kV=0.23 kW=1 PF=1.0 Yearly=Shape_EVLoad_22 Vmaxpu=1.1 Vminpu=0.9
New Load.LOAD_ev_23 Phases=1 Bus1=406.2 kV=0.23 kW=1 PF=1.0 Yearly=Shape_EVLoad_23 Vmaxpu=1.1 Vminpu=0.9
New Load.LOAD_ev_24 Phases=1 Bus1=458.3 kV=0.23 kW=1 PF=1.0 Yearly=Shape_EVLoad_24 Vmaxpu=1.1 Vminpu=0.9
New Load.LOAD_ev_25 Phases=1 Bus1=502.1 kV=0.23 kW=1 PF=1.0 Yearly=Shape_EVLoad_25 Vmaxpu=1.1 Vminpu=0.9
New Load.LOAD_ev_26 Phases=1 Bus1=522.2 kV=0.23 kW=1 PF=1.0 Yearly=Shape_EVLoad_26 Vmaxpu=1.1 Vminpu=0.9
New Load.LOAD_ev_27 Phases=1 Bus1=539.3 kV=0.23 kW=1 PF=1.0 Yearly=Shape_EVLoad_27 Vmaxpu=1.1 Vminpu=0.9
New Load.LOAD_ev_28 Phases=1 Bus1=556.3 kV=0.23 kW=1 PF=1.0 Yearly=Shape_EVLoad_28 Vmaxpu=1.1 Vminpu=0.9
New Load.LOAD_ev_29 Phases=1 Bus1=562.1 kV=0.23 kW=1 PF=1.0 Yearly=Shape_EVLoad_29 Vmaxpu=1.1 Vminpu=0.9
New Load.LOAD_ev_30 Phases=1 Bus1=563.1 kV=0.23 kW=1 PF=1.0 Yearly=Shape_EVLoad_30 Vmaxpu=1.1 Vminpu=0.9
New Load.LOAD_ev_31 Phases=1 Bus1=611.1 kV=0.23 kW=1 PF=1.0 Yearly=Shape_EVLoad_31 Vmaxpu=1.1 Vminpu=0.9
New Load.LOAD_ev_32 Phases=1 Bus1=614.3 kV=0.23 kW=1 PF=1.0 Yearly=Shape_EVLoad_32 Vmaxpu=1.1 Vminpu=0.9
New Load.LOAD_ev_33 Phases=1 Bus1=619.3 kV=0.23 kW=1 PF=1.0 Yearly=Shape_EVLoad_33 Vmaxpu=1.1 Vminpu=0.9
New Load.LOAD_ev_34 Phases=1 Bus1=629.1 kV=0.23 kW=1 PF=1.0 Yearly=Shape_EVLoad_34 Vmaxpu=1.1 Vminpu=0.9
New Load.LOAD_ev_35 Phases=1 Bus1=639.2 kV=0.23 kW=1 PF=1.0 Yearly=Shape_EVLoad_35 Vmaxpu=1.1 Vminpu=0.9
New Load.LOAD_ev_36 Phases=1 Bus1=676.2 kV=0.23 kW=1 PF=1.0 Yearly=Shape_EVLoad_36 Vmaxpu=1.1 Vminpu=0.9
New Load.LOAD_ev_37 Phases=1 Bus1=682.2 kV=0.23 kW=1 PF=1.0 Yearly=Shape_EVLoad_37 Vmaxpu=1.1 Vminpu=0.9
New Load.LOAD_ev_38 Phases=1 Bus1=688.2 kV=0.23 kW=1 PF=1.0 Yearly=Shape_EVLoad_38 Vmaxpu=1.1 Vminpu=0.9
New Load.LOAD_ev_39 Phases=1 Bus1=701.3 kV=0.23 kW=1 PF=1.0 Yearly=Shape_EVLoad_39 Vmaxpu=1.1 Vminpu=0.9
New Load.LOAD_ev_40 Phases=1 Bus1=702.2 kV=0.23 kW=1 PF=1.0 Yearly=Shape_EVLoad_40 Vmaxpu=1.1 Vminpu=0.9
New Load.LOAD_ev_41 Phases=1 Bus1=755.2 kV=0.23 kW=1 PF=1.0 Yearly=Shape_EVLoad_41 Vmaxpu=1.1 Vminpu=0.9
New Load.LOAD_ev_42 Phases=1 Bus1=778.3 kV=0.23 kW=1 PF=1.0 Yearly=Shape_EVLoad_42 Vmaxpu=1.1 Vminpu=0.9
New Load.LOAD_ev_43 Phases=1 Bus1=780.3 kV=0.23 kW=1 PF=1.0 Yearly=Shape_EVLoad_43 Vmaxpu=1.1 Vminpu=0.9
New Load.LOAD_ev_44 Phases=1 Bus1=785.2 kV=0.23 kW=1 PF=1.0 Yearly=Shape_EVLoad_44 Vmaxpu=1.1 Vminpu=0.9
New Load.LOAD_ev_45 Phases=1 Bus1=813.2 kV=0.23 kW=1 PF=1.0 Yearly=Shape_EVLoad_45 Vmaxpu=1.1 Vminpu=0.9
New Load.LOAD_ev_46 Phases=1 Bus1=817.1 kV=0.23 kW=1 PF=1.0 Yearly=Shape_EVLoad_46 Vmaxpu=1.1 Vminpu=0.9
New Load.LOAD_ev_47 Phases=1 Bus1=835.3 kV=0.23 kW=1 PF=1.0 Yearly=Shape_EVLoad_47 Vmaxpu=1.1 Vminpu=0.9
New Load.LOAD_ev_48 Phases=1 Bus1=860.1 kV=0.23 kW=1 PF=1.0 Yearly=Shape_EVLoad_48 Vmaxpu=1.1 Vminpu=0.9
New Load.LOAD_ev_49 Phases=1 Bus1=861.1 kV=0.23 kW=1 PF=1.0 Yearly=Shape_EVLoad_49 Vmaxpu=1.1 Vminpu=0.9
New Load.LOAD_ev_50 Phases=1 Bus1=886.2 kV=0.23 kW=1 PF=1.0 Yearly=Shape_EVLoad_50 Vmaxpu=1.1 Vminpu=0.9
New Load.LOAD_ev_51 Phases=1 Bus1=896.1 kV=0.23 kW=1 PF=1.0 Yearly=Shape_EVLoad_51 Vmaxpu=1.1 Vminpu=0.9
New Load.LOAD_ev_52 Phases=1 Bus1=898.1 kV=0.23 kW=1 PF=1.0 Yearly=Shape_EVLoad_52 Vmaxpu=1.1 Vminpu=0.9
New Load.LOAD_ev_53 Phases=1 Bus1=899.2 kV=0.23 kW=1 PF=1.0 Yearly=Shape_EVLoad_53 Vmaxpu=1.1 Vminpu=0.9
New Load.LOAD_ev_54 Phases=1 Bus1=900.1 kV=0.23 kW=1 PF=1.0 Yearly=Shape_EVLoad_54 Vmaxpu=1.1 Vminpu=0.9
New Load.LOAD_ev_55 Phases=1 Bus1=906.1 kV=0.23 kW=1 PF=1.0 Yearly=Shape_EVLoad_50 Vmaxpu=1.1 Vminpu=0.9
