PVGenerators.txt
New Generator.PV1 Phases=1 Bus1=34.1 kV=0.23 kW=1 PF=1.0 Model=1 Yearly=Shape_Gen_1 Dispvalue=0 Vminpu=0.9 Vmaxpu=1.1
New Generator.PV2 Phases=1 Bus1=47.2 kV=0.23 kW=1 PF=1.0 Model=1 Yearly=Shape_Gen_2 Dispvalue=0 Vminpu=0.9 Vmaxpu=1.1
New Generator.PV3 Phases=1 Bus1=70.1 kV=0.23 kW=1 PF=1.0 Model=1 Yearly=Shape_Gen_3 Dispvalue=0 Vminpu=0.9 Vmaxpu=1.1
New Generator.PV4 Phases=1 Bus1=73.1 kV=0.23 kW=1 PF=1.0 Model=1 Yearly=Shape_Gen_4 Dispvalue=0 Vminpu=0.9 Vmaxpu=1.1
New Generator.PV5 Phases=1 Bus1=74.1 kV=0.23 kW=1 PF=1.0 Model=1 Yearly=Shape_Gen_5 Dispvalue=0 Vminpu=0.9 Vmaxpu=1.1
New Generator.PV6 Phases=1 Bus1=83.2 kV=0.23 kW=1 PF=1.0 Model=1 Yearly=Shape_Gen_6 Dispvalue=0 Vminpu=0.9 Vmaxpu=1.1
New Generator.PV7 Phases=1 Bus1=178.2 kV=0.23 kW=1 PF=1.0 Model=1 Yearly=Shape_Gen_7 Dispvalue=0 Vminpu=0.9 Vmaxpu=1.1
New Generator.PV8 Phases=1 Bus1=208.3 kV=0.23 kW=1 PF=1.0 Model=1 Yearly=Shape_Gen_8 Dispvalue=0 Vminpu=0.9 Vmaxpu=1.1
New Generator.PV9 Phases=1 Bus1=225.1 kV=0.23 kW=1 PF=1.0 Model=1 Yearly=Shape_Gen_9 Dispvalue=0 Vminpu=0.9 Vmaxpu=1.1
New Generator.PV10 Phases=1 Bus1=248.2 kV=0.23 kW=1 PF=1.0 Model=1 Yearly=Shape_Gen_10 Dispvalue=0 Vminpu=0.9 Vmaxpu=1.1
New Generator.PV11 Phases=1 Bus1=249.2 kV=0.23 kW=1 PF=1.0 Model=1 Yearly=Shape_Gen_11 Dispvalue=0 Vminpu=0.9 Vmaxpu=1.1
New Generator.PV12 Phases=1 Bus1=264.3 kV=0.23 kW=1 PF=1.0 Model=1 Yearly=Shape_Gen_12 Dispvalue=0 Vminpu=0.9 Vmaxpu=1.1
New Generator.PV13 Phases=1 Bus1=276.2 kV=0.23 kW=1 PF=1.0 Model=1 Yearly=Shape_Gen_13 Dispvalue=0 Vminpu=0.9 Vmaxpu=1.1
New Generator.PV14 Phases=1 Bus1=289.1 kV=0.23 kW=1 PF=1.0 Model=1 Yearly=Shape_Gen_14 Dispvalue=0 Vminpu=0.9 Vmaxpu=1.1
New Generator.PV15 Phases=1 Bus1=314.2 kV=0.23 kW=1 PF=1.0 Model=1 Yearly=Shape_Gen_15 Dispvalue=0 Vminpu=0.9 Vmaxpu=1.1
New Generator.PV16 Phases=1 Bus1=320.3 kV=0.23 kW=1 PF=1.0 Model=1 Yearly=Shape_Gen_16 Dispvalue=0 Vminpu=0.9 Vmaxpu=1.1
New Generator.PV17 Phases=1 Bus1=327.3 kV=0.23 kW=1 PF=1.0 Model=1 Yearly=Shape_Gen_17 Dispvalue=0 Vminpu=0.9 Vmaxpu=1.1
New Generator.PV18 Phases=1 Bus1=337.3 kV=0.23 kW=1 PF=1.0 Model=1 Yearly=Shape_Gen_18 Dispvalue=0 Vminpu=0.9 Vmaxpu=1.1
New Generator.PV19 Phases=1 Bus1=342.3 kV=0.23 kW=1 PF=1.0 Model=1 Yearly=Shape_Gen_19 Dispvalue=0 Vminpu=0.9 Vmaxpu=1.1
New Generator.PV20 Phases=1 Bus1=349.1 kV=0.23 kW=1 PF=1.0 Model=1 Yearly=Shape_Gen_20 Dispvalue=0 Vminpu=0.9 Vmaxpu=1.1
New Generator.PV21 Phases=1 Bus1=387.1 kV=0.23 kW=1 PF=1.0 Model=1 Yearly=Shape_Gen_21 Dispvalue=0 Vminpu=0.9 Vmaxpu=1.1
New Generator.PV22 Phases=1 Bus1=388.1 kV=0.23 kW=1 PF=1.0 Model=1 Yearly=Shape_Gen_22 Dispvalue=0 Vminpu=0.9 Vmaxpu=1.1
New Generator.PV23 Phases=1 Bus1=406.2 kV=0.23 kW=1 PF=1.0 Model=1 Yearly=Shape_Gen_23 Dispvalue=0 Vminpu=0.9 Vmaxpu=1.1
New Generator.PV24 Phases=1 Bus1=458.3 kV=0.23 kW=1 PF=1.0 Model=1 Yearly=Shape_Gen_24 Dispvalue=0 Vminpu=0.9 Vmaxpu=1.1
New Generator.PV25 Phases=1 Bus1=502.1 kV=0.23 kW=1 PF=1.0 Model=1 Yearly=Shape_Gen_25 Dispvalue=0 Vminpu=0.9 Vmaxpu=1.1
New Generator.PV26 Phases=1 Bus1=522.2 kV=0.23 kW=1 PF=1.0 Model=1 Yearly=Shape_Gen_26 Dispvalue=0 Vminpu=0.9 Vmaxpu=1.1
New Generator.PV27 Phases=1 Bus1=539.3 kV=0.23 kW=1 PF=1.0 Model=1 Yearly=Shape_Gen_27 Dispvalue=0 Vminpu=0.9 Vmaxpu=1.1
New Generator.PV28 Phases=1 Bus1=556.3 kV=0.23 kW=1 PF=1.0 Model=1 Yearly=Shape_Gen_28 Dispvalue=0 Vminpu=0.9 Vmaxpu=1.1
New Generator.PV29 Phases=1 Bus1=562.1 kV=0.23 kW=1 PF=1.0 Model=1 Yearly=Shape_Gen_29 Dispvalue=0 Vminpu=0.9 Vmaxpu=1.1
New Generator.PV30 Phases=1 Bus1=563.1 kV=0.23 kW=1 PF=1.0 Model=1 Yearly=Shape_Gen_30 Dispvalue=0 Vminpu=0.9 Vmaxpu=1.1
New Generator.PV31 Phases=1 Bus1=611.1 kV=0.23 kW=1 PF=1.0 Model=1 Yearly=Shape_Gen_31 Dispvalue=0 Vminpu=0.9 Vmaxpu=1.1
New Generator.PV32 Phases=1 Bus1=614.3 kV=0.23 kW=1 PF=1.0 Model=1 Yearly=Shape_Gen_32 Dispvalue=0 Vminpu=0.9 Vmaxpu=1.1
New Generator.PV33 Phases=1 Bus1=619.3 kV=0.23 kW=1 PF=1.0 Model=1 Yearly=Shape_Gen_33 Dispvalue=0 Vminpu=0.9 Vmaxpu=1.1
New Generator.PV34 Phases=1 Bus1=629.1 kV=0.23 kW=1 PF=1.0 Model=1 Yearly=Shape_Gen_34 Dispvalue=0 Vminpu=0.9 Vmaxpu=1.1
New Generator.PV35 Phases=1 Bus1=639.2 kV=0.23 kW=1 PF=1.0 Model=1 Yearly=Shape_Gen_35 Dispvalue=0 Vminpu=0.9 Vmaxpu=1.1
New Generator.PV36 Phases=1 Bus1=676.2 kV=0.23 kW=1 PF=1.0 Model=1 Yearly=Shape_Gen_36 Dispvalue=0 Vminpu=0.9 Vmaxpu=1.1
New Generator.PV37 Phases=1 Bus1=682.2 kV=0.23 kW=1 PF=1.0 Model=1 Yearly=Shape_Gen_37 Dispvalue=0 Vminpu=0.9 Vmaxpu=1.1
New Generator.PV38 Phases=1 Bus1=688.2 kV=0.23 kW=1 PF=1.0 Model=1 Yearly=Shape_Gen_38 Dispvalue=0 Vminpu=0.9 Vmaxpu=1.1
New Generator.PV39 Phases=1 Bus1=701.3 kV=0.23 kW=1 PF=1.0 Model=1 Yearly=Shape_Gen_39 Dispvalue=0 Vminpu=0.9 Vmaxpu=1.1
New Generator.PV40 Phases=1 Bus1=702.2 kV=0.23 kW=1 PF=1.0 Model=1 Yearly=Shape_Gen_40 Dispvalue=0 Vminpu=0.9 Vmaxpu=1.1
New Generator.PV41 Phases=1 Bus1=755.2 kV=0.23 kW=1 PF=1.0 Model=1 Yearly=Shape_Gen_41 Dispvalue=0 Vminpu=0.9 Vmaxpu=1.1
New Generator.PV42 Phases=1 Bus1=778.3 kV=0.23 kW=1 PF=1.0 Model=1 Yearly=Shape_Gen_42 Dispvalue=0 Vminpu=0.9 Vmaxpu=1.1
New Generator.PV43 Phases=1 Bus1=780.3 kV=0.23 kW=1 PF=1.0 Model=1 Yearly=Shape_Gen_43 Dispvalue=0 Vminpu=0.9 Vmaxpu=1.1
New Generator.PV44 Phases=1 Bus1=785.2 kV=0.23 kW=1 PF=1.0 Model=1 Yearly=Shape_Gen_44 Dispvalue=0 Vminpu=0.9 Vmaxpu=1.1
New Generator.PV45 Phases=1 Bus1=813.2 kV=0.23 kW=1 PF=1.0 Model=1 Yearly=Shape_Gen_45 Dispvalue=0 Vminpu=0.9 Vmaxpu=1.1
New Generator.PV46 Phases=1 Bus1=817.1 kV=0.23 kW=1 PF=1.0 Model=1 Yearly=Shape_Gen_46 Dispvalue=0 Vminpu=0.9 Vmaxpu=1.1
New Generator.PV47 Phases=1 Bus1=835.3 kV=0.23 kW=1 PF=1.0 Model=1 Yearly=Shape_Gen_47 Dispvalue=0 Vminpu=0.9 Vmaxpu=1.1
New Generator.PV48 Phases=1 Bus1=860.1 kV=0.23 kW=1 PF=1.0 Model=1 Yearly=Shape_Gen_48 Dispvalue=0 Vminpu=0.9 Vmaxpu=1.1
New Generator.PV49 Phases=1 Bus1=861.1 kV=0.23 kW=1 PF=1.0 Model=1 Yearly=Shape_Gen_49 Dispvalue=0 Vminpu=0.9 Vmaxpu=1.1
New Generator.PV50 Phases=1 Bus1=886.2 kV=0.23 kW=1 PF=1.0 Model=1 Yearly=Shape_Gen_50 Dispvalue=0 Vminpu=0.9 Vmaxpu=1.1
New Generator.PV51 Phases=1 Bus1=896.1 kV=0.23 kW=1 PF=1.0 Model=1 Yearly=Shape_Gen_51 Dispvalue=0 Vminpu=0.9 Vmaxpu=1.1
New Generator.PV52 Phases=1 Bus1=898.1 kV=0.23 kW=1 PF=1.0 Model=1 Yearly=Shape_Gen_52 Dispvalue=0 Vminpu=0.9 Vmaxpu=1.1
New Generator.PV53 Phases=1 Bus1=899.2 kV=0.23 kW=1 PF=1.0 Model=1 Yearly=Shape_Gen_53 Dispvalue=0 Vminpu=0.9 Vmaxpu=1.1
New Generator.PV54 Phases=1 Bus1=900.1 kV=0.23 kW=1 PF=1.0 Model=1 Yearly=Shape_Gen_54 Dispvalue=0 Vminpu=0.9 Vmaxpu=1.1
New Generator.PV55 Phases=1 Bus1=906.1 kV=0.23 kW=1 PF=1.0 Model=1 Yearly=Shape_Gen_50 Dispvalue=0 Vminpu=0.9 Vmaxpu=1.1
